%nproc=16
%mem=60GB
%chk=N1_S_PA1_ts2_opts.chk
# irc=(calcfc,maxpoints=30,stepsize=5)

N1_S_PA1_ts2_opts.out

0 1
 O                  1.84427000    2.99403000   -1.46093000
 N                 -1.32497000    1.85199000    0.04870000
 O                  0.50372000    4.13860000   -0.20287000
 O                 -1.91907000    4.05659000    0.20784000
 C                 -0.20605000    0.93144000   -1.91360000
 N                 -7.30089000    1.60304000    2.55866000
 C                 -5.96945000    1.86263000    1.99667000
 C                  0.73088000    3.01725000   -0.80118000
 C                 -3.48368000    2.45734000    0.94902000
 C                 -0.07301000    1.83967000   -0.69488000
 C                 -2.16154000    2.84487000    0.35966000
 C                 -4.04788000    3.29565000    1.91246000
 C                 -5.42365000    1.01838000    1.02604000
 C                 -4.17017000    1.33049000    0.50588000
 C                 -5.28492000    2.98310000    2.45449000
 O                 -7.49475000    1.96617000    3.70227000
 O                 -8.12392000    1.06954000    1.83847000
 H                  2.25542000    2.05911000   -1.58553000
 H                 -1.61671000    0.91372000    0.31150000
 H                 -0.50121000    4.21965000    0.01867000
 H                 -1.07558000    1.21818000   -2.51586000
 H                  0.68529000    0.96945000   -2.53844000
 H                 -0.33490000   -0.11021000   -1.59603000
 H                 -3.50859000    4.18345000    2.22137000
 H                 -3.75663000    0.68129000   -0.26045000
 H                 -5.74374000    3.59262000    3.22384000
 O                  1.57443000    0.30679000    0.64390000
 O                  4.04317000    0.05417000    0.69930000
 C                  3.73430000    6.19094000   -0.29321000
 O                  2.70091000   -1.63128000   -0.64564000
 C                  5.71115000    2.22890000    2.09537000
 C                 -3.78950000   -1.67735000   -1.61938000
 O                  2.87669000    0.69993000   -1.54933000
 C                 -0.65367000   -1.33650000    2.30085000
 C                  0.81241000   -3.68410000   -1.97029000
 C                  5.27149000    2.24273000   -2.97654000
 C                  4.62231000    4.20437000   -1.55832000
 C                  5.73596000   -1.50756000    0.04493000
 C                  7.63801000   -0.77626000   -1.25751000
 C                  4.78646000    4.18667000    0.82573000
 C                  4.41313000    4.84822000   -0.34046000
 C                  3.74746000   -2.98071000    1.04204000
 C                  5.47849000    2.25066000   -0.43621000
 C                  5.27596000   -0.20157000    0.09345000
 C                  5.21352000   -2.76488000    0.71067000
 C                  5.31900000    2.89727000    0.80068000
 C                  5.84871000   -2.96272000    2.11705000
 C                  5.13935000    2.91382000   -1.63066000
 C                  6.89689000   -1.79664000   -0.67760000
 C                  7.19242000    0.53811000   -1.13407000
 C                  1.32539000   -2.94829000    0.83041000
 C                  2.59485000   -2.53184000    0.41098000
 C                  4.99101000   -4.05739000    2.77505000
 C                  5.99329000    0.85310000   -0.48522000
 C                  2.38881000   -4.24233000    2.60221000
 C                  0.06549000   -2.51512000    0.15775000
 C                  3.63123000   -3.80293000    2.16750000
 C                 -1.44696000   -2.61921000   -1.72652000
 C                  1.25111000   -3.82795000    1.91674000
 C                 -0.20314000   -2.91526000   -1.16459000
 C                 -2.14812000   -1.55800000    0.29701000
 C                 -0.90793000   -1.81023000    0.88970000
 C                 -2.43919000   -1.95505000   -1.00945000
 C                  5.75954000   -3.84387000   -0.26690000
 C                  7.12461000   -3.29100000   -0.72053000
 P                  2.75744000   -0.05938000   -0.26613000
 H                  0.84360000    1.05479000    0.11392000
 H                  4.04325000    6.82459000   -1.12872000
 H                  2.64949000    6.05454000   -0.35962000
 H                  3.95272000    6.71775000    0.63888000
 H                  4.96457000    1.48684000    2.39497000
 H                  5.79547000    2.96712000    2.89595000
 H                  6.67044000    1.71185000    2.00236000
 H                 -4.09999000   -2.48467000   -2.28726000
 H                 -4.54950000   -1.57389000   -0.84152000
 H                 -3.77084000   -0.75612000   -2.21724000
 H                 -0.76662000   -2.14673000    3.02739000
 H                  0.35716000   -0.93518000    2.39692000
 H                 -1.36839000   -0.55413000    2.57335000
 H                  1.23788000   -4.50486000   -1.38580000
 H                  1.63910000   -3.03420000   -2.27176000
 H                  0.35508000   -4.10072000   -2.86983000
 H                  4.70161000    2.79456000   -3.72790000
 H                  6.31194000    2.20249000   -3.31460000
 H                  4.89002000    1.21972000   -2.93761000
 H                  4.32728000    4.70425000   -2.47833000
 H                  8.54615000   -0.99643000   -1.81066000
 H                  4.65073000    4.68075000    1.78550000
 H                  5.74772000   -2.02726000    2.67749000
 H                  6.91186000   -3.21146000    2.05847000
 H                  7.76491000    1.34954000   -1.57307000
 H                  4.97821000   -3.99105000    3.86615000
 H                  5.35405000   -5.05940000    2.51559000
 H                  2.30180000   -4.89059000    3.46884000
 H                 -1.65349000   -2.94399000   -2.74386000
 H                  0.27076000   -4.17339000    2.23143000
 H                 -2.92564000   -1.08641000    0.89742000
 H                  5.81824000   -4.83244000    0.19734000
 H                  5.08298000   -3.90891000   -1.12567000
 H                  7.41260000   -3.63926000   -1.71600000
 H                  7.92399000   -3.58825000   -0.03084000
 O                 -6.04479000   -0.13045000    0.63197000
 C                 -6.80244000    0.00178000   -0.55773000
 H                 -7.52018000    0.82256000   -0.47818000
 H                 -6.14322000    0.15088000   -1.42237000
 C                 -7.57079000   -1.29482000   -0.72408000
 C                 -8.14168000   -1.43653000   -2.13791000
 F                 -6.76465000   -2.35855000   -0.51682000
 F                 -8.59170000   -1.36237000    0.14852000
 F                 -8.86328000   -0.35525000   -2.44449000
 F                 -7.13801000   -1.53484000   -3.01568000
 F                 -8.90809000   -2.51265000   -2.23740000

--Link1--
%nproc=16
%mem=60GB
%chk=N1_S_PA1_ts2_opts.chk
# irc=(restart,maxpoints=60,stepsize=20) geom=allcheck guess=read 

Title

