%nprocshared=3
%mem=3GB
%chk=D:\QXT\irc_helper\origin_file\back\new_irc_DA.chk
#p irc=(calcfc,maxpoints=5,stepsize=5,lqa) b3lyp/6-31g(d) em=gd3bj

Title Card Required

0 1
 C                 -1.58050170    0.74276693   -0.21728225
 H                 -1.45426714    1.28065233   -1.14957931
 H                 -2.05365588    1.30460031    0.58245087
 C                 -1.62504008   -0.64011836   -0.21387301
 H                 -2.13394257   -1.16625474    0.58822418
 H                 -1.53395450   -1.18948771   -1.14359060
 C                  0.47151441    1.42125917    0.49256865
 H                  0.44900415    2.50229647    0.38336779
 H                  0.14233687    1.05750879    1.45877935
 C                  1.30977822    0.66078142   -0.29860297
 H                  1.86079444    1.15143240   -1.09906046
 C                  1.26378008   -0.74587258   -0.29507668
 H                  1.78136908   -1.27546826   -1.09301806
 C                  0.37751802   -1.44594298    0.49969900
 H                  0.28462281   -2.52377434    0.39602767
 H                  0.07332813   -1.05665225    1.46417131

--Link1--
%nprocshared=3
%mem=3GB
%chk=D:\QXT\irc_helper\origin_file\back\new_irc_DA.chk
#p irc=(restart,maxpoints=10,stepsize=20,lqa) b3lyp/6-31g(d) em=gd3bj geom=allcheck guess=read 

Title Card Required




